mtd/3phase_linearization/13Bus_copy/IEEE13Nodeckt_increase_switch_VLN_Node.Txt

LINE-GROUND and LINE-LINE VOLTAGES BY BUS & NODE

Bus       Node    VLN (kV)   Angle      pu     Base kV    Node-Node   VLL (kV)  Angle      pu

SOURCEBUS 1       66.394 /_   30.0   0.99998   115.000        1-2        115 /_   60.0         1
   -      2       66.395 /_  -90.0         1   115.000        2-3        115 /_  -60.0   0.99997
   -      3       66.392 /_  150.0   0.99995   115.000        3-1     114.99 /_  180.0   0.99995
650 ..... 1       2.4016 /_    0.0   0.99991     4.160        1-2     4.1598 /_   30.0   0.99994
   -      2       2.4017 /_ -120.0   0.99997     4.160        2-3     4.1599 /_  -90.0   0.99997
   -      3       2.4016 /_  120.0   0.99994     4.160        3-1     4.1596 /_  150.0   0.99991
RG60 .... 1       2.5364 /_    0.0     1.056     4.160        1-2     4.3544 /_   29.7    1.0467
   -      2       2.4916 /_ -120.0    1.0374     4.160        2-3     4.3545 /_  -89.7    1.0468
   -      3       2.5364 /_  120.0    1.0561     4.160        3-1     4.3931 /_  150.0     1.056
633 ..... 1       2.4408 /_   -2.1    1.0162     4.160        1-2     4.2367 /_   28.4    1.0184
   -      2       2.4667 /_ -121.5     1.027     4.160        2-3     4.2408 /_  -91.9    1.0194
   -      3       2.4228 /_  118.2    1.0088     4.160        3-1     4.2187 /_  148.2    1.0141
634 ..... 1      0.27497 /_   -2.8   0.99222     0.480        1-2    0.47815 /_   27.9   0.99614
   -      2      0.27946 /_ -121.9    1.0084     0.480        2-3    0.48034 /_  -92.4    1.0007
   -      3       0.2743 /_  117.7    0.9898     0.480        3-1     0.4769 /_  147.5   0.99354
671 ..... 1       2.3781 /_   -4.4   0.99016     4.160        1-2     4.1672 /_   27.6    1.0017
   -      2       2.4927 /_ -122.0    1.0378     4.160        2-3     4.2162 /_  -93.6    1.0135
   -      3       2.3463 /_  116.8   0.97691     4.160        3-1     4.1158 /_  146.5   0.98938
645 ..... 2         2.45 /_ -121.6    1.0201     4.160        2-3     4.2246 /_  -91.8    1.0155
   -      3        2.424 /_  118.3    1.0093     4.160
646 ..... 2       2.4458 /_ -121.6    1.0183     4.160        2-3     4.2148 /_  -91.8    1.0132
   -      3       2.4196 /_  118.3    1.0074     4.160
692 ..... 1       2.3779 /_   -4.4   0.99005     4.160        1-2      4.167 /_   27.6    1.0017
   -      2       2.4927 /_ -122.0    1.0379     4.160        2-3     4.2161 /_  -93.6    1.0135
   -      3       2.3461 /_  116.8   0.97683     4.160        3-1     4.1154 /_  146.4   0.98928
675 ..... 1       2.3624 /_   -4.6   0.98361     4.160        1-2     4.1572 /_   27.6   0.99932
   -      2       2.4983 /_ -122.2    1.0402     4.160        2-3     4.2132 /_  -93.7    1.0128
   -      3       2.3416 /_  116.8   0.97495     4.160        3-1     4.1032 /_  146.3   0.98635
611 ..... 3       2.3366 /_  116.6   0.97288     4.160
652 ..... 1       2.3607 /_   -4.3   0.98291     4.160
670 ..... 1       2.4249 /_   -2.8    1.0096     4.160        1-2     4.2193 /_   28.1    1.0143
   -      2       2.4765 /_ -121.6    1.0311     4.160        2-3     4.2362 /_  -92.5    1.0183
   -      3       2.3983 /_  117.7   0.99855     4.160        3-1     4.1876 /_  147.6    1.0066
632 ..... 1       2.4475 /_   -2.0     1.019     4.160        1-2     4.2465 /_   28.4    1.0208
   -      2        2.471 /_ -121.4    1.0288     4.160        2-3     4.2503 /_  -91.9    1.0217
   -      3       2.4285 /_  118.2    1.0111     4.160        3-1     4.2284 /_  148.2    1.0165
680 ..... 1       2.3781 /_   -4.4   0.99016     4.160        1-2     4.1672 /_   27.6    1.0017
   -      2       2.4927 /_ -122.0    1.0378     4.160        2-3     4.2162 /_  -93.6    1.0135
   -      3       2.3463 /_  116.8   0.97691     4.160        3-1     4.1158 /_  146.5   0.98938
684 ..... 1       2.3737 /_   -4.4    0.9883     4.160
   -      3       2.3415 /_  116.7   0.97491     4.160        3-1     4.1062 /_  146.4   0.98708
